<additional xmlns:xsi="http://www.w3.org/2001/XMLSchema-instance" xsi:noNamespaceSchemaLocation="http://sumo.dlr.de/xsd/additional_file.xsd">
    <e1Detector file="e1output.xml" freq="60" friendlyPos="x" id="e1det_101_0" lane="101_0" pos="492.7"/>
    <e1Detector file="e1output.xml" freq="60" friendlyPos="x" id="e1det_102_0" lane="102_0" pos="491.37"/>
    <e1Detector file="e1output.xml" freq="60" friendlyPos="x" id="e1det_103_0" lane="103_0" pos="491.37"/>
    <e1Detector file="e1output.xml" freq="60" friendlyPos="x" id="e1det_104_0" lane="104_0" pos="492.7"/>
    <e1Detector file="e1output.xml" freq="60" friendlyPos="x" id="e1det_106_0" lane="106_0" pos="492.7"/>
    <e1Detector file="e1output.xml" freq="60" friendlyPos="x" id="e1det_107_0" lane="107_0" pos="484.96999999999997"/>
    <e1Detector file="e1output.xml" freq="60" friendlyPos="x" id="e1det_108_0" lane="108_0" pos="491.37"/>
    <e1Detector file="e1output.xml" freq="60" friendlyPos="x" id="e1det_109_0" lane="109_0" pos="491.37"/>
    <e1Detector file="e1output.xml" freq="60" friendlyPos="x" id="e1det_111_0" lane="111_0" pos="492.7"/>
    <e1Detector file="e1output.xml" freq="60" friendlyPos="x" id="e1det_112_0" lane="112_0" pos="492.7"/>
    <e1Detector file="e1output.xml" freq="60" friendlyPos="x" id="e1det_113_0" lane="113_0" pos="484.96999999999997"/>
    <e1Detector file="e1output.xml" freq="60" friendlyPos="x" id="e1det_114_0" lane="114_0" pos="484.96999999999997"/>
    <e1Detector file="e1output.xml" freq="60" friendlyPos="x" id="e1det_116_0" lane="116_0" pos="491.37"/>
    <e1Detector file="e1output.xml" freq="60" friendlyPos="x" id="e1det_117_0" lane="117_0" pos="491.37"/>
    <e1Detector file="e1output.xml" freq="60" friendlyPos="x" id="e1det_118_0" lane="118_0" pos="484.96999999999997"/>
    <e1Detector file="e1output.xml" freq="60" friendlyPos="x" id="e1det_119_0" lane="119_0" pos="492.7"/>
    <e1Detector file="e1output.xml" freq="60" friendlyPos="x" id="e1det_121_0" lane="121_0" pos="491.37"/>
    <e1Detector file="e1output.xml" freq="60" friendlyPos="x" id="e1det_122_0" lane="122_0" pos="491.37"/>
    <e1Detector file="e1output.xml" freq="60" friendlyPos="x" id="e1det_123_0" lane="123_0" pos="484.96999999999997"/>
    <e1Detector file="e1output.xml" freq="60" friendlyPos="x" id="e1det_124_0" lane="124_0" pos="491.37"/>
    <e1Detector file="e1output.xml" freq="60" friendlyPos="x" id="e1det_126_0" lane="126_0" pos="484.96999999999997"/>
    <e1Detector file="e1output.xml" freq="60" friendlyPos="x" id="e1det_127_0" lane="127_0" pos="492.7"/>
    <e1Detector file="e1output.xml" freq="60" friendlyPos="x" id="e1det_128_0" lane="128_0" pos="484.96999999999997"/>
    <e1Detector file="e1output.xml" freq="60" friendlyPos="x" id="e1det_129_0" lane="129_0" pos="491.37"/>
    <e1Detector file="e1output.xml" freq="60" friendlyPos="x" id="e1det_131_0" lane="131_0" pos="484.96999999999997"/>
    <e1Detector file="e1output.xml" freq="60" friendlyPos="x" id="e1det_132_0" lane="132_0" pos="491.37"/>
    <e1Detector file="e1output.xml" freq="60" friendlyPos="x" id="e1det_133_0" lane="133_0" pos="492.7"/>
    <e1Detector file="e1output.xml" freq="60" friendlyPos="x" id="e1det_134_0" lane="134_0" pos="492.7"/>
    <e1Detector file="e1output.xml" freq="60" friendlyPos="x" id="e1det_136_0" lane="136_0" pos="484.96999999999997"/>
    <e1Detector file="e1output.xml" freq="60" friendlyPos="x" id="e1det_137_0" lane="137_0" pos="491.37"/>
    <e1Detector file="e1output.xml" freq="60" friendlyPos="x" id="e1det_138_0" lane="138_0" pos="492.7"/>
    <e1Detector file="e1output.xml" freq="60" friendlyPos="x" id="e1det_139_0" lane="139_0" pos="491.37"/>
    <e1Detector file="e1output.xml" freq="60" friendlyPos="x" id="e1det_141_0" lane="141_0" pos="484.96999999999997"/>
    <e1Detector file="e1output.xml" freq="60" friendlyPos="x" id="e1det_142_0" lane="142_0" pos="492.7"/>
    <e1Detector file="e1output.xml" freq="60" friendlyPos="x" id="e1det_143_0" lane="143_0" pos="492.7"/>
    <e1Detector file="e1output.xml" freq="60" friendlyPos="x" id="e1det_144_0" lane="144_0" pos="491.37"/>
</additional>
